Circuit: * C:\Users\crmar\Documents\AMSD_Projects\Assignment2_sim6.asc

.OP point found by inspection.
.step v2=0
.step v2=0.5
.step v2=1
.step v2=1.5
.step v2=2
.step v2=2.5
.step v2=3

Date: Fri Aug 26 13:26:22 2022
Total elapsed time: 0.094 seconds.

tnom = 27
temp = 27
method = trap
totiter = 4224
traniter = 0
tranpoints = 0
accept = 0
rejected = 0
matrix size = 4
fillins = 0
solver = Normal
Matrix Compiler1:       7 opcodes  0.0/[0.0]/0.0
Matrix Compiler2: 216 bytes object code size  0.0/0.0/[0.0]

