Circuit: * C:\Users\crmar\Documents\AMSD_Projects\Assignment2_sim1.asc

Direct Newton iteration for .op point succeeded.

Date: Thu Aug 25 16:51:58 2022
Total elapsed time: 0.016 seconds.

tnom = 27
temp = 27
method = modified trap
totiter = 2125
traniter = 2122
tranpoints = 1062
accept = 1062
rejected = 0
matrix size = 3
fillins = 0
solver = Normal
Matrix Compiler1:       3 opcodes  0.0/[0.0]/0.0
Matrix Compiler2: 175 bytes object code size  0.0/0.0/[0.0]

